*SPEF "ieee 1481-1999"
*DESIGN "iiitb_brg"
*DATE "11:11:11 Fri 11 11, 1111"
*VENDOR "OpenRCX"
*PROGRAM "Parallel Extraction"
*VERSION "1.0"
*DESIGN_FLOW "NAME_SCOPE LOCAL" "PIN_CAP NONE"
*DIVIDER /
*DELIMITER :
*BUS_DELIMITER []
*T_UNIT 1 NS
*C_UNIT 1 PF
*R_UNIT 1 OHM
*L_UNIT 1 HENRY

*NAME_MAP
*3 clk
*4 clkout
*5 reset
*6 sel[0]
*7 sel[1]
*8 _000_
*9 _001_
*10 _002_
*11 _003_
*12 _004_
*13 _005_
*14 _006_
*15 _007_
*16 _008_
*17 _009_
*18 _010_
*19 _011_
*20 _012_
*21 _013_
*22 _014_
*23 _015_
*24 _016_
*25 _017_
*26 _018_
*27 _019_
*28 _020_
*29 _021_
*30 _022_
*31 _023_
*32 _024_
*33 _025_
*34 _026_
*35 _027_
*36 _028_
*37 _029_
*38 _030_
*39 _031_
*40 _032_
*41 _033_
*42 _034_
*43 _035_
*44 _036_
*45 _037_
*46 _038_
*47 _039_
*48 _040_
*49 _041_
*50 _042_
*51 _043_
*52 _044_
*53 _045_
*54 _046_
*55 _047_
*56 _048_
*57 _049_
*58 _050_
*59 _051_
*60 _052_
*61 _053_
*62 _054_
*63 _055_
*64 _056_
*65 _057_
*66 _058_
*67 _059_
*68 _060_
*69 _061_
*70 _062_
*71 _063_
*72 _064_
*73 _065_
*74 _066_
*75 _067_
*76 _068_
*77 _069_
*78 _070_
*79 _071_
*80 _072_
*81 clknet_0_clk
*82 clknet_1_0__leaf_clk
*83 clknet_1_1__leaf_clk
*84 cnt1\[0\]
*85 cnt1\[1\]
*86 cnt1\[2\]
*87 cnt1\[3\]
*88 cnt1\[4\]
*89 cnt1\[5\]
*90 cnt2\[0\]
*91 cnt2\[1\]
*92 cnt3\[0\]
*93 cnt3\[1\]
*94 cnt3\[2\]
*95 cnt4\[0\]
*96 cnt4\[1\]
*97 cnt4\[2\]
*98 cnt4\[3\]
*99 net1
*100 net2
*101 net3
*102 net4
*103 ANTENNA_1
*104 FILLER_0_103
*105 FILLER_0_111
*106 FILLER_0_113
*107 FILLER_0_121
*108 FILLER_0_138
*109 FILLER_0_141
*110 FILLER_0_16
*111 FILLER_0_29
*112 FILLER_0_3
*113 FILLER_0_41
*114 FILLER_0_52
*115 FILLER_0_57
*116 FILLER_0_69
*117 FILLER_0_7
*118 FILLER_0_81
*119 FILLER_0_85
*120 FILLER_10_105
*121 FILLER_10_120
*122 FILLER_10_128
*123 FILLER_10_138
*124 FILLER_10_141
*125 FILLER_10_15
*126 FILLER_10_27
*127 FILLER_10_29
*128 FILLER_10_3
*129 FILLER_10_41
*130 FILLER_10_53
*131 FILLER_10_64
*132 FILLER_10_76
*133 FILLER_10_85
*134 FILLER_10_97
*135 FILLER_11_106
*136 FILLER_11_113
*137 FILLER_11_125
*138 FILLER_11_143
*139 FILLER_11_15
*140 FILLER_11_27
*141 FILLER_11_3
*142 FILLER_11_39
*143 FILLER_11_51
*144 FILLER_11_55
*145 FILLER_11_57
*146 FILLER_11_82
*147 FILLER_11_94
*148 FILLER_12_103
*149 FILLER_12_115
*150 FILLER_12_127
*151 FILLER_12_139
*152 FILLER_12_141
*153 FILLER_12_15
*154 FILLER_12_27
*155 FILLER_12_29
*156 FILLER_12_3
*157 FILLER_12_41
*158 FILLER_12_58
*159 FILLER_12_82
*160 FILLER_12_85
*161 FILLER_12_91
*162 FILLER_13_105
*163 FILLER_13_111
*164 FILLER_13_113
*165 FILLER_13_125
*166 FILLER_13_137
*167 FILLER_13_15
*168 FILLER_13_27
*169 FILLER_13_3
*170 FILLER_13_39
*171 FILLER_13_51
*172 FILLER_13_55
*173 FILLER_13_57
*174 FILLER_13_69
*175 FILLER_13_81
*176 FILLER_13_93
*177 FILLER_14_104
*178 FILLER_14_116
*179 FILLER_14_128
*180 FILLER_14_141
*181 FILLER_14_15
*182 FILLER_14_27
*183 FILLER_14_29
*184 FILLER_14_3
*185 FILLER_14_41
*186 FILLER_14_65
*187 FILLER_14_73
*188 FILLER_14_80
*189 FILLER_14_85
*190 FILLER_14_92
*191 FILLER_15_104
*192 FILLER_15_113
*193 FILLER_15_123
*194 FILLER_15_135
*195 FILLER_15_143
*196 FILLER_15_15
*197 FILLER_15_27
*198 FILLER_15_3
*199 FILLER_15_39
*200 FILLER_15_51
*201 FILLER_15_55
*202 FILLER_15_57
*203 FILLER_15_63
*204 FILLER_15_68
*205 FILLER_15_78
*206 FILLER_15_92
*207 FILLER_16_109
*208 FILLER_16_121
*209 FILLER_16_13
*210 FILLER_16_133
*211 FILLER_16_138
*212 FILLER_16_141
*213 FILLER_16_25
*214 FILLER_16_29
*215 FILLER_16_3
*216 FILLER_16_57
*217 FILLER_16_69
*218 FILLER_16_81
*219 FILLER_16_85
*220 FILLER_16_97
*221 FILLER_17_105
*222 FILLER_17_111
*223 FILLER_17_113
*224 FILLER_17_132
*225 FILLER_17_144
*226 FILLER_17_23
*227 FILLER_17_3
*228 FILLER_17_35
*229 FILLER_17_47
*230 FILLER_17_55
*231 FILLER_17_57
*232 FILLER_17_69
*233 FILLER_17_81
*234 FILLER_17_93
*235 FILLER_18_106
*236 FILLER_18_118
*237 FILLER_18_130
*238 FILLER_18_138
*239 FILLER_18_141
*240 FILLER_18_21
*241 FILLER_18_27
*242 FILLER_18_29
*243 FILLER_18_3
*244 FILLER_18_53
*245 FILLER_18_61
*246 FILLER_18_67
*247 FILLER_18_74
*248 FILLER_18_82
*249 FILLER_18_85
*250 FILLER_18_97
*251 FILLER_19_100
*252 FILLER_19_113
*253 FILLER_19_125
*254 FILLER_19_137
*255 FILLER_19_15
*256 FILLER_19_24
*257 FILLER_19_3
*258 FILLER_19_36
*259 FILLER_19_48
*260 FILLER_19_57
*261 FILLER_19_75
*262 FILLER_19_86
*263 FILLER_19_93
*264 FILLER_1_111
*265 FILLER_1_113
*266 FILLER_1_125
*267 FILLER_1_132
*268 FILLER_1_142
*269 FILLER_1_21
*270 FILLER_1_27
*271 FILLER_1_3
*272 FILLER_1_39
*273 FILLER_1_51
*274 FILLER_1_55
*275 FILLER_1_57
*276 FILLER_1_65
*277 FILLER_1_74
*278 FILLER_1_86
*279 FILLER_1_9
*280 FILLER_1_90
*281 FILLER_1_99
*282 FILLER_20_109
*283 FILLER_20_119
*284 FILLER_20_127
*285 FILLER_20_137
*286 FILLER_20_141
*287 FILLER_20_15
*288 FILLER_20_27
*289 FILLER_20_29
*290 FILLER_20_3
*291 FILLER_20_41
*292 FILLER_20_45
*293 FILLER_20_57
*294 FILLER_20_64
*295 FILLER_20_76
*296 FILLER_20_85
*297 FILLER_20_95
*298 FILLER_21_111
*299 FILLER_21_113
*300 FILLER_21_124
*301 FILLER_21_136
*302 FILLER_21_144
*303 FILLER_21_15
*304 FILLER_21_27
*305 FILLER_21_3
*306 FILLER_21_39
*307 FILLER_21_51
*308 FILLER_21_55
*309 FILLER_21_57
*310 FILLER_21_69
*311 FILLER_21_73
*312 FILLER_21_82
*313 FILLER_21_99
*314 FILLER_22_102
*315 FILLER_22_114
*316 FILLER_22_135
*317 FILLER_22_139
*318 FILLER_22_141
*319 FILLER_22_15
*320 FILLER_22_27
*321 FILLER_22_29
*322 FILLER_22_3
*323 FILLER_22_35
*324 FILLER_22_47
*325 FILLER_22_66
*326 FILLER_22_78
*327 FILLER_22_85
*328 FILLER_22_90
*329 FILLER_23_105
*330 FILLER_23_111
*331 FILLER_23_113
*332 FILLER_23_132
*333 FILLER_23_144
*334 FILLER_23_15
*335 FILLER_23_27
*336 FILLER_23_3
*337 FILLER_23_33
*338 FILLER_23_45
*339 FILLER_23_53
*340 FILLER_23_57
*341 FILLER_23_69
*342 FILLER_23_81
*343 FILLER_23_93
*344 FILLER_24_102
*345 FILLER_24_110
*346 FILLER_24_113
*347 FILLER_24_125
*348 FILLER_24_137
*349 FILLER_24_141
*350 FILLER_24_15
*351 FILLER_24_27
*352 FILLER_24_29
*353 FILLER_24_3
*354 FILLER_24_41
*355 FILLER_24_53
*356 FILLER_24_57
*357 FILLER_24_63
*358 FILLER_24_70
*359 FILLER_24_82
*360 FILLER_24_85
*361 FILLER_24_90
*362 FILLER_2_103
*363 FILLER_2_115
*364 FILLER_2_123
*365 FILLER_2_134
*366 FILLER_2_141
*367 FILLER_2_15
*368 FILLER_2_27
*369 FILLER_2_29
*370 FILLER_2_3
*371 FILLER_2_35
*372 FILLER_2_43
*373 FILLER_2_55
*374 FILLER_2_67
*375 FILLER_2_79
*376 FILLER_2_83
*377 FILLER_2_85
*378 FILLER_3_104
*379 FILLER_3_109
*380 FILLER_3_113
*381 FILLER_3_125
*382 FILLER_3_142
*383 FILLER_3_20
*384 FILLER_3_3
*385 FILLER_3_32
*386 FILLER_3_44
*387 FILLER_3_57
*388 FILLER_3_68
*389 FILLER_3_77
*390 FILLER_3_8
*391 FILLER_3_85
*392 FILLER_3_96
*393 FILLER_4_102
*394 FILLER_4_114
*395 FILLER_4_122
*396 FILLER_4_129
*397 FILLER_4_137
*398 FILLER_4_141
*399 FILLER_4_15
*400 FILLER_4_27
*401 FILLER_4_29
*402 FILLER_4_3
*403 FILLER_4_38
*404 FILLER_4_50
*405 FILLER_4_58
*406 FILLER_4_76
*407 FILLER_4_85
*408 FILLER_4_90
*409 FILLER_5_100
*410 FILLER_5_113
*411 FILLER_5_132
*412 FILLER_5_14
*413 FILLER_5_144
*414 FILLER_5_18
*415 FILLER_5_3
*416 FILLER_5_30
*417 FILLER_5_42
*418 FILLER_5_54
*419 FILLER_5_57
*420 FILLER_5_69
*421 FILLER_5_93
*422 FILLER_6_10
*423 FILLER_6_104
*424 FILLER_6_116
*425 FILLER_6_128
*426 FILLER_6_141
*427 FILLER_6_22
*428 FILLER_6_29
*429 FILLER_6_3
*430 FILLER_6_41
*431 FILLER_6_57
*432 FILLER_6_69
*433 FILLER_6_81
*434 FILLER_6_85
*435 FILLER_6_94
*436 FILLER_7_108
*437 FILLER_7_113
*438 FILLER_7_130
*439 FILLER_7_143
*440 FILLER_7_15
*441 FILLER_7_27
*442 FILLER_7_3
*443 FILLER_7_39
*444 FILLER_7_51
*445 FILLER_7_55
*446 FILLER_7_57
*447 FILLER_7_69
*448 FILLER_7_81
*449 FILLER_7_96
*450 FILLER_8_104
*451 FILLER_8_116
*452 FILLER_8_128
*453 FILLER_8_141
*454 FILLER_8_15
*455 FILLER_8_27
*456 FILLER_8_29
*457 FILLER_8_3
*458 FILLER_8_51
*459 FILLER_8_58
*460 FILLER_8_70
*461 FILLER_8_82
*462 FILLER_8_85
*463 FILLER_8_92
*464 FILLER_9_101
*465 FILLER_9_105
*466 FILLER_9_109
*467 FILLER_9_113
*468 FILLER_9_121
*469 FILLER_9_133
*470 FILLER_9_142
*471 FILLER_9_15
*472 FILLER_9_19
*473 FILLER_9_3
*474 FILLER_9_36
*475 FILLER_9_48
*476 FILLER_9_57
*477 FILLER_9_69
*478 FILLER_9_73
*479 FILLER_9_82
*480 FILLER_9_88
*481 PHY_0
*482 PHY_1
*483 PHY_10
*484 PHY_11
*485 PHY_12
*486 PHY_13
*487 PHY_14
*488 PHY_15
*489 PHY_16
*490 PHY_17
*491 PHY_18
*492 PHY_19
*493 PHY_2
*494 PHY_20
*495 PHY_21
*496 PHY_22
*497 PHY_23
*498 PHY_24
*499 PHY_25
*500 PHY_26
*501 PHY_27
*502 PHY_28
*503 PHY_29
*504 PHY_3
*505 PHY_30
*506 PHY_31
*507 PHY_32
*508 PHY_33
*509 PHY_34
*510 PHY_35
*511 PHY_36
*512 PHY_37
*513 PHY_38
*514 PHY_39
*515 PHY_4
*516 PHY_40
*517 PHY_41
*518 PHY_42
*519 PHY_43
*520 PHY_44
*521 PHY_45
*522 PHY_46
*523 PHY_47
*524 PHY_48
*525 PHY_49
*526 PHY_5
*527 PHY_6
*528 PHY_7
*529 PHY_8
*530 PHY_9
*531 TAP_100
*532 TAP_101
*533 TAP_102
*534 TAP_103
*535 TAP_104
*536 TAP_105
*537 TAP_106
*538 TAP_107
*539 TAP_108
*540 TAP_109
*541 TAP_110
*542 TAP_111
*543 TAP_112
*544 TAP_113
*545 TAP_114
*546 TAP_115
*547 TAP_116
*548 TAP_50
*549 TAP_51
*550 TAP_52
*551 TAP_53
*552 TAP_54
*553 TAP_55
*554 TAP_56
*555 TAP_57
*556 TAP_58
*557 TAP_59
*558 TAP_60
*559 TAP_61
*560 TAP_62
*561 TAP_63
*562 TAP_64
*563 TAP_65
*564 TAP_66
*565 TAP_67
*566 TAP_68
*567 TAP_69
*568 TAP_70
*569 TAP_71
*570 TAP_72
*571 TAP_73
*572 TAP_74
*573 TAP_75
*574 TAP_76
*575 TAP_77
*576 TAP_78
*577 TAP_79
*578 TAP_80
*579 TAP_81
*580 TAP_82
*581 TAP_83
*582 TAP_84
*583 TAP_85
*584 TAP_86
*585 TAP_87
*586 TAP_88
*587 TAP_89
*588 TAP_90
*589 TAP_91
*590 TAP_92
*591 TAP_93
*592 TAP_94
*593 TAP_95
*594 TAP_96
*595 TAP_97
*596 TAP_98
*597 TAP_99
*598 _073_
*599 _074_
*600 _075_
*601 _076_
*602 _077_
*603 _078_
*604 _080_
*605 _081_
*606 _082_
*607 _083_
*608 _084_
*609 _085_
*610 _086_
*611 _087_
*612 _088_
*613 _089_
*614 _091_
*615 _092_
*616 _093_
*617 _094_
*618 _095_
*619 _096_
*620 _097_
*621 _098_
*622 _099_
*623 _100_
*624 _101_
*625 _102_
*626 _103_
*627 _104_
*628 _105_
*629 _106_
*630 _107_
*631 _108_
*632 _109_
*633 _110_
*634 _111_
*635 _112_
*636 _113_
*637 _114_
*638 _115_
*639 _116_
*640 _117_
*641 _118_
*642 _119_
*643 _120_
*644 _121_
*645 _122_
*646 _123_
*647 _124_
*648 _125_
*649 _126_
*650 _127_
*651 _128_
*652 _129_
*653 _130_
*654 _131_
*655 _132_
*656 _133_
*657 _134_
*658 _135_
*659 _136_
*660 _139_
*661 _140_
*662 _141_
*663 _142_
*664 _143_
*665 _144_
*666 _145_
*667 _146_
*668 _147_
*669 _148_
*670 _149_
*671 _150_
*672 _151_
*673 _152_
*674 _153_
*675 _154_
*676 _155_
*677 _156_
*678 _157_
*679 _158_
*680 _159_
*681 _160_
*682 _161_
*683 clkbuf_0_clk
*684 clkbuf_1_0__f_clk
*685 clkbuf_1_1__f_clk
*686 input1
*687 input2
*688 input3
*689 output4

*PORTS
clk I
clkout O
reset I
sel[0] I
sel[1] I

*D_NET *3 0.00456866
*CONN
*P clk I
*I *683:A I *D sky130_fd_sc_hd__clkbuf_16
*CAP
1 clk 0.00187789
2 *683:A 0.000406438
3 *3:13 0.00228433
4 *683:A *654:B1 0
5 *683:A *76:8 0
6 *683:A *98:46 0
7 *3:13 *644:A1 0
8 *3:13 *644:B1 0
9 *3:13 *682:D 0
10 *3:13 *15:8 0
11 *3:13 *36:26 0
12 *3:13 *98:21 0
13 *3:13 *98:46 0
*RES
1 clk *3:13 46.4715 
2 *3:13 *683:A 23.0321 
*END

*D_NET *4 0.00158093
*CONN
*P clkout O
*I *689:X O *D sky130_fd_sc_hd__buf_2
*CAP
1 clkout 0.000790466
2 *689:X 0.000790466
3 clkout *689:A 0
*RES
1 *689:X clkout 31.05 
*END

*D_NET *5 0.000971118
*CONN
*P reset I
*I *686:A I *D sky130_fd_sc_hd__clkbuf_1
*CAP
1 reset 0.000485559
2 *686:A 0.000485559
3 *686:A *40:14 0
4 *686:A *97:46 0
*RES
1 reset *686:A 20.7558 
*END

*D_NET *6 0.000817245
*CONN
*P sel[0] I
*I *687:A I *D sky130_fd_sc_hd__clkbuf_1
*CAP
1 sel[0] 0.000408622
2 *687:A 0.000408622
*RES
1 sel[0] *687:A 22.9607 
*END

*D_NET *7 0.00119874
*CONN
*P sel[1] I
*I *688:A I *D sky130_fd_sc_hd__clkbuf_1
*CAP
1 sel[1] 0.000599368
2 *688:A 0.000599368
3 *688:A *632:A4 0
4 *688:A *38:92 0
5 *688:A *101:11 0
*RES
1 sel[1] *688:A 27.2821 
*END

*D_NET *8 0.00186315
*CONN
*I *667:D I *D sky130_fd_sc_hd__dfxtp_1
*I *666:X O *D sky130_fd_sc_hd__clkbuf_1
*CAP
1 *667:D 0.000931574
2 *666:X 0.000931574
3 *667:D *632:A3 0
4 *667:D *670:CLK 0
5 *667:D *11:23 0
6 *667:D *55:37 0
7 *667:D *71:18 0
8 *667:D *82:43 0
9 *667:D *86:37 0
*RES
1 *666:X *667:D 48.408 
*END

*D_NET *9 0.00125241
*CONN
*I *668:D I *D sky130_fd_sc_hd__dfxtp_2
*I *601:Y O *D sky130_fd_sc_hd__nor2_1
*CAP
1 *668:D 0.000626206
2 *601:Y 0.000626206
3 *668:D *647:A1 0
4 *668:D *668:CLK 0
5 *668:D *52:31 0
6 *668:D *72:14 0
7 *668:D *88:41 0
8 *668:D *98:46 0
*RES
1 *601:Y *668:D 41.3143 
*END

*D_NET *10 0.00388935
*CONN
*I *669:D I *D sky130_fd_sc_hd__dfxtp_1
*I *603:X O *D sky130_fd_sc_hd__o21a_1
*CAP
1 *669:D 0.000362144
2 *603:X 0.00158253
3 *10:6 0.00194468
4 *669:D *669:CLK 0
5 *669:D *91:5 0
6 *10:6 *601:A 0
7 *10:6 *603:A2 0
8 *10:6 *41:18 0
9 *10:6 *46:8 0
10 *10:6 *84:16 0
11 *10:6 *97:11 0
*RES
1 *603:X *10:6 49.7464 
2 *10:6 *669:D 21.358 
*END

*D_NET *11 0.00546472
*CONN
*I *670:D I *D sky130_fd_sc_hd__dfxtp_1
*I *606:X O *D sky130_fd_sc_hd__clkbuf_1
*CAP
1 *670:D 0
2 *606:X 0.000861633
3 *11:23 0.00187073
4 *11:15 0.00273236
5 *11:15 *614:A1 0
6 *11:15 *614:A3 0
7 *11:15 *63:7 0
8 *11:23 *614:B1 0
9 *11:23 *632:A1 0
10 *11:23 *632:A3 0
11 *11:23 *670:CLK 0
12 *11:23 *673:D 0
13 *11:23 *25:10 0
14 *11:23 *30:30 0
15 *11:23 *102:24 0
16 *667:D *11:23 0
*RES
1 *606:X *11:15 36.4607 
2 *11:15 *11:23 48.5759 
3 *11:23 *670:D 9.3 
*END

*D_NET *12 0.00621122
*CONN
*I *671:D I *D sky130_fd_sc_hd__dfxtp_1
*I *609:X O *D sky130_fd_sc_hd__a32o_1
*CAP
1 *671:D 0
2 *609:X 0.000893816
3 *12:15 0.00221179
4 *12:13 0.00310561
5 *12:13 *47:10 0
6 *12:13 *77:16 0
7 *12:15 *668:CLK 0
8 *12:15 *671:CLK 0
9 *12:15 *38:74 0
10 *12:15 *88:41 0
*RES
1 *609:X *12:13 38.4518 
2 *12:13 *12:15 46.192 
3 *12:15 *671:D 9.3 
*END

*D_NET *13 0.00449683
*CONN
*I *672:D I *D sky130_fd_sc_hd__dfxtp_2
*I *612:X O *D sky130_fd_sc_hd__a32o_1
*CAP
1 *672:D 0.00123493
2 *612:X 0.00101349
3 *13:11 0.00224842
4 *672:D *625:A0 0
5 *672:D *625:S 0
6 *672:D *54:27 0
7 *672:D *70:26 0
8 *672:D *76:8 0
9 *13:11 *653:A_N 0
10 *13:11 *24:7 0
11 *13:11 *34:45 0
*RES
1 *612:X *13:11 35.0143 
2 *13:11 *672:D 41.733 
*END

*D_NET *14 0.00433795
*CONN
*I *673:D I *D sky130_fd_sc_hd__dfxtp_1
*I *615:X O *D sky130_fd_sc_hd__a32o_1
*CAP
1 *673:D 0.000159146
2 *615:X 0.000104386
3 *14:10 0.00206459
4 *14:7 0.00200983
5 *673:D *25:10 0
6 *673:D *30:30 0
7 *14:7 *615:A3 0
8 *14:10 *631:C 0
9 *14:10 *30:30 0
10 *14:10 *33:22 0
11 *14:10 *46:26 0
12 *14:10 *55:29 0
13 *14:10 *74:15 0
14 *14:10 *100:13 0
15 *11:23 *673:D 0
*RES
1 *615:X *14:7 15.9786 
2 *14:7 *14:10 47.7321 
3 *14:10 *673:D 12.6214 
*END

*D_NET *15 0.00925447
*CONN
*I *674:D I *D sky130_fd_sc_hd__dfxtp_2
*I *618:X O *D sky130_fd_sc_hd__a32o_1
*CAP
1 *674:D 0.00129905
2 *618:X 2.56688e-05
3 *15:13 0.00218484
4 *15:8 0.00330251
5 *15:7 0.00244239
6 *674:D *641:A3 0
7 *674:D *47:34 0
8 *674:D *73:13 0
9 *674:D *73:21 0
10 *674:D *88:10 0
11 *15:7 *618:A2 0
12 *15:8 *618:A3 0
13 *15:8 *644:A3 0
14 *15:8 *36:8 0
15 *15:8 *36:26 0
16 *15:8 *77:16 0
17 *15:13 *620:A 0
18 *15:13 *620:B 0
19 *15:13 *47:34 0
20 *15:13 *67:7 0
21 *15:13 *73:13 0
22 *3:13 *15:8 0
*RES
1 *618:X *15:7 14.3357 
2 *15:7 *15:8 54.7679 
3 *15:8 *15:13 23.0179 
4 *15:13 *674:D 36.4429 
*END

*D_NET *16 0.000905238
*CONN
*I *675:D I *D sky130_fd_sc_hd__dfxtp_1
*I *621:X O *D sky130_fd_sc_hd__a22o_1
*CAP
1 *675:D 0.000452619
2 *621:X 0.000452619
3 *675:D *601:A 0
4 *675:D *67:8 0
5 *675:D *82:22 0
*RES
1 *621:X *675:D 37.7473 
*END

*D_NET *17 0.00337729
*CONN
*I *676:D I *D sky130_fd_sc_hd__dfxtp_2
*I *626:X O *D sky130_fd_sc_hd__clkbuf_1
*CAP
1 *676:D 0.00126939
2 *626:X 0.000419257
3 *17:7 0.00168864
4 *676:D *612:A3 0
5 *676:D *615:A1 0
6 *676:D *54:36 0
7 *676:D *78:30 0
8 *17:7 *671:CLK 0
9 *17:7 *82:67 0
*RES
1 *626:X *17:7 22.55 
2 *17:7 *676:D 42.6259 
*END

*D_NET *18 0.00512697
*CONN
*I *677:D I *D sky130_fd_sc_hd__dfxtp_2
*I *630:X O *D sky130_fd_sc_hd__clkbuf_1
*CAP
1 *677:D 0.000672308
2 *630:X 2.56688e-05
3 *18:10 0.00253781
4 *18:7 0.00189118
5 *677:D *641:A1 0
6 *677:D *664:C 0
7 *677:D *677:CLK 0
8 *677:D *41:55 0
9 *677:D *48:7 0
10 *677:D *93:8 0
11 *18:7 *33:22 0
12 *18:10 *645:C 0
13 *18:10 *659:A1 0
14 *18:10 *29:10 0
15 *18:10 *38:30 0
16 *18:10 *41:43 0
17 *18:10 *42:46 0
18 *18:10 *43:19 0
19 *18:10 *77:13 0
20 *18:10 *79:8 0
21 *18:10 *96:34 0
22 *18:10 *96:47 0
*RES
1 *630:X *18:7 14.3357 
2 *18:7 *18:10 46.8214 
3 *18:10 *677:D 23.3937 
*END

*D_NET *19 0.004864
*CONN
*I *678:D I *D sky130_fd_sc_hd__dfxtp_1
*I *633:Y O *D sky130_fd_sc_hd__a21boi_1
*CAP
1 *678:D 0.000873808
2 *633:Y 0.00155819
3 *19:6 0.002432
4 *678:D *655:D_N 0
5 *678:D *678:CLK 0
6 *678:D *47:7 0
7 *678:D *94:7 0
8 *19:6 *609:B1 0
9 *19:6 *625:S 0
10 *19:6 *633:A1 0
11 *19:6 *633:A2 0
12 *19:6 *641:B1 0
13 *19:6 *38:39 0
14 *19:6 *68:11 0
15 *19:6 *70:26 0
*RES
1 *633:Y *19:6 49.1393 
2 *19:6 *678:D 32.0366 
*END

*D_NET *20 0.00127923
*CONN
*I *679:D I *D sky130_fd_sc_hd__dfxtp_2
*I *638:X O *D sky130_fd_sc_hd__clkbuf_1
*CAP
1 *679:D 0.000639615
2 *638:X 0.000639615
3 *679:D *612:A3 0
4 *679:D *640:B 0
5 *679:D *671:CLK 0
6 *679:D *78:8 0
7 *679:D *95:5 0
8 *679:D *96:47 0
*RES
1 *638:X *679:D 41.6179 
*END

*D_NET *21 0.00281392
*CONN
*I *680:D I *D sky130_fd_sc_hd__dfxtp_1
*I *643:X O *D sky130_fd_sc_hd__clkbuf_1
*CAP
1 *680:D 0.00048407
2 *643:X 0.000922892
3 *21:16 0.00140696
4 *680:D *83:55 0
5 *680:D *91:19 0
6 *21:16 *604:B1 0
7 *21:16 *641:A1 0
8 *21:16 *659:B1 0
9 *21:16 *660:A2 0
10 *21:16 *660:D1 0
11 *21:16 *27:8 0
12 *21:16 *30:108 0
13 *21:16 *34:67 0
14 *21:16 *43:8 0
15 *21:16 *43:13 0
16 *21:16 *76:8 0
17 *21:16 *83:55 0
18 *21:16 *97:29 0
*RES
1 *643:X *21:16 47.3714 
2 *21:16 *680:D 19.4652 
*END

*D_NET *22 0.00290629
*CONN
*I *681:D I *D sky130_fd_sc_hd__dfxtp_1
*I *644:X O *D sky130_fd_sc_hd__a32o_1
*CAP
1 *681:D 0
2 *644:X 0.00145315
3 *22:15 0.00145315
4 *22:15 *644:A1 0
5 *22:15 *681:CLK 0
6 *22:15 *36:26 0
7 *22:15 *47:28 0
8 *22:15 *67:8 0
9 *22:15 *83:43 0
10 *22:15 *86:90 0
11 *22:15 *91:10 0
12 *22:15 *97:11 0
*RES
1 *644:X *22:15 49.1795 
2 *22:15 *681:D 9.3 
*END

*D_NET *23 0.00405552
*CONN
*I *682:D I *D sky130_fd_sc_hd__dfxtp_1
*I *647:X O *D sky130_fd_sc_hd__a22o_1
*CAP
1 *682:D 0.00105787
2 *647:X 0.000969893
3 *23:13 0.00202776
4 *682:D *26:24 0
5 *682:D *42:58 0
6 *682:D *63:10 0
7 *682:D *89:32 0
8 *23:13 *647:A2 0
9 *23:13 *34:5 0
10 *23:13 *34:9 0
11 *23:13 *42:58 0
12 *23:13 *46:26 0
13 *23:13 *51:18 0
14 *23:13 *79:20 0
15 *23:13 *88:41 0
16 *3:13 *682:D 0
*RES
1 *647:X *23:13 43.175 
2 *23:13 *682:D 37.8402 
*END

*D_NET *24 0.00457258
*CONN
*I *640:C I *D sky130_fd_sc_hd__nand3_2
*I *639:X O *D sky130_fd_sc_hd__a21o_1
*CAP
1 *640:C 0.00153249
2 *639:X 0.000753807
3 *24:7 0.00228629
4 *640:C *612:A3 0
5 *640:C *665:A0 0
6 *640:C *671:CLK 0
7 *640:C *25:10 0
8 *640:C *38:78 0
9 *640:C *48:11 0
10 *640:C *54:36 0
11 *640:C *69:59 0
12 *24:7 *612:B1 0
13 *24:7 *653:A_N 0
14 *13:11 *24:7 0
*RES
1 *639:X *24:7 29.5321 
2 *24:7 *640:C 48.3179 
*END

*D_NET *25 0.00907425
*CONN
*I *644:B1 I *D sky130_fd_sc_hd__a32o_1
*I *647:A2 I *D sky130_fd_sc_hd__a22o_1
*I *642:A I *D sky130_fd_sc_hd__and2_1
*I *640:Y O *D sky130_fd_sc_hd__nand3_2
*CAP
1 *644:B1 0.000659587
2 *647:A2 0.000334978
3 *642:A 0.000105242
4 *640:Y 0.00114629
5 *25:45 0.00263172
6 *25:23 0.00262601
7 *25:10 0.00157042
8 *642:A *54:27 0
9 *642:A *71:18 0
10 *644:B1 *644:A1 0
11 *644:B1 *67:8 0
12 *644:B1 *83:19 0
13 *647:A2 *647:A1 0
14 *647:A2 *46:26 0
15 *25:10 *611:A1 0
16 *25:10 *614:B1 0
17 *25:10 *632:A1 0
18 *25:10 *640:B 0
19 *25:10 *72:10 0
20 *25:23 *611:A1 0
21 *25:23 *27:8 0
22 *25:23 *72:10 0
23 *25:45 *628:A2 0
24 *25:45 *639:B1 0
25 *25:45 *663:A1 0
26 *25:45 *663:A2 0
27 *25:45 *684:A 0
28 *25:45 *685:A 0
29 *25:45 *32:32 0
30 *25:45 *33:60 0
31 *25:45 *34:67 0
32 *25:45 *35:9 0
33 *25:45 *42:46 0
34 *25:45 *45:8 0
35 *25:45 *52:31 0
36 *25:45 *72:10 0
37 *640:C *25:10 0
38 *673:D *25:10 0
39 *3:13 *644:B1 0
40 *11:23 *25:10 0
41 *23:13 *647:A2 0
*RES
1 *640:Y *25:10 38.05 
2 *25:10 *642:A 15.9964 
3 *25:10 *25:23 7.33929 
4 *25:23 *647:A2 21.0679 
5 *25:23 *25:45 47.8393 
6 *25:45 *644:B1 32.2732 
*END

*D_NET *26 0.00551201
*CONN
*I *642:B I *D sky130_fd_sc_hd__and2_1
*I *641:X O *D sky130_fd_sc_hd__a31o_1
*CAP
1 *642:B 0
2 *641:X 0.000841031
3 *26:24 0.00191497
4 *26:14 0.002756
5 *26:14 *622:A 0
6 *26:14 *664:A 0
7 *26:14 *32:32 0
8 *26:14 *89:32 0
9 *26:14 *98:21 0
10 *26:24 *614:A1 0
11 *26:24 *616:B 0
12 *26:24 *617:B 0
13 *26:24 *32:32 0
14 *26:24 *39:67 0
15 *26:24 *42:58 0
16 *26:24 *57:20 0
17 *26:24 *63:10 0
18 *26:24 *89:32 0
19 *682:D *26:24 0
*RES
1 *641:X *26:14 32.8625 
2 *26:14 *26:24 45.1419 
3 *26:24 *642:B 9.3 
*END

*D_NET *27 0.00513409
*CONN
*I *643:A I *D sky130_fd_sc_hd__clkbuf_1
*I *642:X O *D sky130_fd_sc_hd__and2_1
*CAP
1 *643:A 0.000379898
2 *642:X 0.000124066
3 *27:8 0.00244298
4 *27:7 0.00218715
5 *643:A *641:A1 0
6 *643:A *664:A 0
7 *643:A *69:48 0
8 *27:7 *56:10 0
9 *27:7 *71:18 0
10 *27:8 *599:A 0
11 *27:8 *611:A1 0
12 *27:8 *633:A2 0
13 *27:8 *660:D1 0
14 *27:8 *684:A 0
15 *27:8 *685:A 0
16 *27:8 *33:60 0
17 *27:8 *34:38 0
18 *27:8 *34:67 0
19 *27:8 *38:30 0
20 *27:8 *39:22 0
21 *27:8 *68:11 0
22 *27:8 *86:8 0
23 *21:16 *27:8 0
24 *25:23 *27:8 0
*RES
1 *642:X *27:7 16.3893 
2 *27:7 *27:8 46.875 
3 *27:8 *643:A 21.7286 
*END

*D_NET *28 0.00241854
*CONN
*I *646:B I *D sky130_fd_sc_hd__and2b_1
*I *645:X O *D sky130_fd_sc_hd__and4b_1
*CAP
1 *646:B 0
2 *645:X 0.00120927
3 *28:9 0.00120927
4 *28:9 *59:14 0
5 *28:9 *69:48 0
6 *28:9 *70:7 0
7 *28:9 *102:54 0
*RES
1 *645:X *28:9 44.6393 
2 *28:9 *646:B 9.3 
*END

*D_NET *29 0.00207348
*CONN
*I *647:B1 I *D sky130_fd_sc_hd__a22o_1
*I *646:X O *D sky130_fd_sc_hd__and2b_1
*CAP
1 *647:B1 0
2 *646:X 0.00103674
3 *29:10 0.00103674
4 *29:10 *655:C 0
5 *29:10 *33:60 0
6 *29:10 *38:30 0
7 *29:10 *43:13 0
8 *29:10 *86:37 0
9 *29:10 *86:51 0
10 *18:10 *29:10 0
*RES
1 *646:X *29:10 41.4786 
2 *29:10 *647:B1 9.3 
*END

*D_NET *30 0.0135425
*CONN
*I *623:B1 I *D sky130_fd_sc_hd__a31o_2
*I *649:A I *D sky130_fd_sc_hd__nor2_1
*I *659:B1 I *D sky130_fd_sc_hd__a21oi_4
*I *660:C1 I *D sky130_fd_sc_hd__a2111oi_1
*I *604:B1 I *D sky130_fd_sc_hd__o21a_2
*I *599:A I *D sky130_fd_sc_hd__or3_1
*I *622:A I *D sky130_fd_sc_hd__nor2_1
*I *634:A I *D sky130_fd_sc_hd__nor2_1
*I *662:A I *D sky130_fd_sc_hd__nor2_2
*I *648:X O *D sky130_fd_sc_hd__clkbuf_4
*CAP
1 *623:B1 0.000535044
2 *649:A 0
3 *659:B1 0.000206792
4 *660:C1 2.56688e-05
5 *604:B1 0.00011023
6 *599:A 0.000329428
7 *622:A 0.000642268
8 *634:A 2.56688e-05
9 *662:A 0.000912097
10 *648:X 9.79507e-05
11 *30:108 0.000429053
12 *30:98 0.000306822
13 *30:70 0.00111739
14 *30:68 0.000439808
15 *30:62 0.000494266
16 *30:42 0.00141258
17 *30:30 0.00237833
18 *30:11 0.00304957
19 *30:10 0.00102958
20 *599:A *39:22 0
21 *599:A *51:44 0
22 *599:A *83:55 0
23 *604:B1 *43:8 0
24 *622:A *609:B1 0
25 *622:A *41:14 0
26 *622:A *89:32 0
27 *623:B1 *613:A 0
28 *623:B1 *665:A1 0
29 *662:A *611:B1 0
30 *662:A *614:A2 0
31 *662:A *662:B 0
32 *30:11 *636:B 0
33 *30:11 *665:A1 0
34 *30:30 *611:A1 0
35 *30:30 *611:B1 0
36 *30:30 *636:B 0
37 *30:30 *33:22 0
38 *30:30 *43:19 0
39 *30:30 *69:17 0
40 *30:30 *69:28 0
41 *30:30 *76:8 0
42 *30:30 *100:20 0
43 *30:42 *613:D 0
44 *30:42 *615:B1 0
45 *30:42 *86:73 0
46 *30:42 *87:25 0
47 *30:42 *93:18 0
48 *30:42 *93:20 0
49 *30:42 *93:26 0
50 *30:62 *55:66 0
51 *30:62 *102:54 0
52 *30:68 *55:57 0
53 *30:70 *599:B 0
54 *30:70 *41:14 0
55 *30:108 *43:8 0
56 *30:108 *100:13 0
57 *673:D *30:30 0
58 *11:23 *30:30 0
59 *14:10 *30:30 0
60 *21:16 *604:B1 0
61 *21:16 *659:B1 0
62 *21:16 *30:108 0
63 *26:14 *622:A 0
64 *27:8 *599:A 0
*RES
1 *648:X *30:10 20.4786 
2 *30:10 *30:11 8.33929 
3 *30:11 *30:30 45.7679 
4 *30:30 *662:A 32.8357 
5 *30:11 *30:42 31.3393 
6 *30:42 *634:A 14.3357 
7 *30:42 *30:62 13.4244 
8 *30:62 *30:68 9.24272 
9 *30:68 *30:70 0.551467 
10 *30:70 *622:A 21.301 
11 *30:70 *599:A 24.4154 
12 *30:68 *30:98 3.41 
13 *30:98 *604:B1 16.1482 
14 *30:98 *30:108 4.52679 
15 *30:108 *660:C1 14.3357 
16 *30:108 *659:B1 22.1007 
17 *30:62 *649:A 9.3 
18 *30:10 *623:B1 29.7107 
*END

*D_NET *31 0.0038847
*CONN
*I *665:A0 I *D sky130_fd_sc_hd__mux2_1
*I *649:Y O *D sky130_fd_sc_hd__nor2_1
*CAP
1 *665:A0 0.00122405
2 *649:Y 0.000718298
3 *31:11 0.00194235
4 *665:A0 *612:B2 0
5 *665:A0 *665:A1 0
6 *665:A0 *48:11 0
7 *31:11 *600:A1 0
8 *31:11 *615:A1 0
9 *31:11 *52:20 0
10 *31:11 *77:13 0
11 *31:11 *102:54 0
12 *640:C *665:A0 0
*RES
1 *649:Y *31:11 28.8536 
2 *31:11 *665:A0 41.55 
*END

*D_NET *32 0.00723703
*CONN
*I *654:A2 I *D sky130_fd_sc_hd__a21oi_2
*I *644:A1 I *D sky130_fd_sc_hd__a32o_1
*I *650:X O *D sky130_fd_sc_hd__and3b_1
*CAP
1 *654:A2 0
2 *644:A1 0.000596371
3 *650:X 0.00111163
4 *32:32 0.00176035
5 *32:19 0.00191051
6 *32:15 0.00185816
7 *644:A1 *36:26 0
8 *644:A1 *97:11 0
9 *32:15 *613:D 0
10 *32:15 *635:A 0
11 *32:15 *648:A 0
12 *32:15 *650:C 0
13 *32:15 *663:A1 0
14 *32:15 *33:60 0
15 *32:15 *61:9 0
16 *32:15 *92:42 0
17 *32:15 *95:24 0
18 *32:15 *95:42 0
19 *32:15 *96:47 0
20 *32:19 *663:A1 0
21 *32:19 *33:60 0
22 *32:19 *36:8 0
23 *32:19 *61:9 0
24 *32:32 *61:9 0
25 *32:32 *89:32 0
26 *644:B1 *644:A1 0
27 *3:13 *644:A1 0
28 *22:15 *644:A1 0
29 *25:45 *32:32 0
30 *26:14 *32:32 0
31 *26:24 *32:32 0
*RES
1 *650:X *32:15 41.675 
2 *32:15 *32:19 15.6429 
3 *32:19 *32:32 43.8036 
4 *32:32 *644:A1 21.7464 
5 *32:19 *654:A2 9.3 
*END

*D_NET *33 0.010241
*CONN
*I *635:A I *D sky130_fd_sc_hd__xnor2_2
*I *604:A1 I *D sky130_fd_sc_hd__o21a_2
*I *653:B I *D sky130_fd_sc_hd__nand3b_1
*I *662:B I *D sky130_fd_sc_hd__nor2_2
*I *651:X O *D sky130_fd_sc_hd__buf_2
*CAP
1 *635:A 0.000293908
2 *604:A1 0.000675171
3 *653:B 0
4 *662:B 0.000876589
5 *651:X 0.00049498
6 *33:60 0.00173666
7 *33:44 0.00204168
8 *33:22 0.00190864
9 *33:5 0.00221332
10 *604:A1 *42:46 0
11 *604:A1 *69:48 0
12 *604:A1 *77:13 0
13 *635:A *613:D 0
14 *662:B *611:B1 0
15 *33:5 *651:A 0
16 *33:22 *614:B1 0
17 *33:22 *625:A0 0
18 *33:22 *651:A 0
19 *33:22 *55:29 0
20 *33:22 *72:10 0
21 *33:22 *86:8 0
22 *33:44 *615:B1 0
23 *33:44 *632:B1 0
24 *33:44 *661:B 0
25 *33:44 *37:8 0
26 *33:44 *87:25 0
27 *33:44 *96:47 0
28 *33:60 *663:A2 0
29 *33:60 *685:A 0
30 *33:60 *61:9 0
31 *33:60 *86:51 0
32 *662:A *662:B 0
33 *14:10 *33:22 0
34 *18:7 *33:22 0
35 *25:45 *33:60 0
36 *27:8 *33:60 0
37 *29:10 *33:60 0
38 *30:30 *33:22 0
39 *32:15 *635:A 0
40 *32:15 *33:60 0
41 *32:19 *33:60 0
*RES
1 *651:X *33:5 19.6929 
2 *33:5 *33:22 40.1071 
3 *33:22 *662:B 27.6571 
4 *33:5 *33:44 33.375 
5 *33:44 *33:60 45.75 
6 *33:60 *653:B 13.8 
7 *33:60 *604:A1 29.9441 
8 *33:44 *635:A 15.4964 
*END

*D_NET *34 0.0140566
*CONN
*I *635:B I *D sky130_fd_sc_hd__xnor2_2
*I *623:A1 I *D sky130_fd_sc_hd__a31o_2
*I *663:C1 I *D sky130_fd_sc_hd__o211a_1
*I *653:C I *D sky130_fd_sc_hd__nand3b_1
*I *600:A1 I *D sky130_fd_sc_hd__o31a_1
*I *660:D1 I *D sky130_fd_sc_hd__a2111oi_1
*I *604:A2 I *D sky130_fd_sc_hd__o21a_2
*I *631:A I *D sky130_fd_sc_hd__nand3_1
*I *602:A I *D sky130_fd_sc_hd__or4b_1
*I *598:B I *D sky130_fd_sc_hd__nor4_1
*I *652:X O *D sky130_fd_sc_hd__clkbuf_4
*CAP
1 *635:B 0.000339583
2 *623:A1 0.000816267
3 *663:C1 0.000259683
4 *653:C 9.88248e-05
5 *600:A1 0.000999968
6 *660:D1 0.000419418
7 *604:A2 3.97866e-05
8 *631:A 4.53482e-05
9 *602:A 3.2228e-05
10 *598:B 0.000934771
11 *652:X 0
12 *34:132 0.00137527
13 *34:79 0.00149853
14 *34:67 0.000896924
15 *34:45 0.00091917
16 *34:38 0.000747835
17 *34:33 0.0012514
18 *34:9 0.00124636
19 *34:5 0.00126336
20 *34:4 0.000871834
21 *598:B *598:C 0
22 *598:B *598:D 0
23 *598:B *602:B 0
24 *598:B *42:58 0
25 *598:B *46:17 0
26 *598:B *46:26 0
27 *600:A1 *600:A2 0
28 *600:A1 *612:B2 0
29 *600:A1 *615:A1 0
30 *600:A1 *52:20 0
31 *600:A1 *102:54 0
32 *604:A2 *102:54 0
33 *623:A1 *666:A 0
34 *623:A1 *37:27 0
35 *623:A1 *40:9 0
36 *623:A1 *48:11 0
37 *623:A1 *69:7 0
38 *623:A1 *69:17 0
39 *635:B *638:A 0
40 *635:B *648:A 0
41 *635:B *102:24 0
42 *635:B *102:54 0
43 *653:C *631:B 0
44 *660:D1 *615:A3 0
45 *660:D1 *42:46 0
46 *660:D1 *69:48 0
47 *660:D1 *97:29 0
48 *660:D1 *98:21 0
49 *663:C1 *655:D_N 0
50 *663:C1 *663:A1 0
51 *663:C1 *47:7 0
52 *34:5 *101:11 0
53 *34:9 *46:26 0
54 *34:33 *625:S 0
55 *34:33 *655:D_N 0
56 *34:33 *68:11 0
57 *34:38 *68:11 0
58 *34:67 *609:A3 0
59 *34:67 *38:30 0
60 *34:67 *43:13 0
61 *34:67 *45:8 0
62 *34:67 *86:90 0
63 *34:67 *92:13 0
64 *34:67 *97:29 0
65 *34:132 *101:11 0
66 *34:132 *102:24 0
67 *13:11 *34:45 0
68 *21:16 *660:D1 0
69 *21:16 *34:67 0
70 *23:13 *34:5 0
71 *23:13 *34:9 0
72 *25:45 *34:67 0
73 *27:8 *660:D1 0
74 *27:8 *34:38 0
75 *27:8 *34:67 0
76 *31:11 *600:A1 0
*RES
1 *652:X *34:4 9.3 
2 *34:4 *34:5 13.6786 
3 *34:5 *34:9 5.89286 
4 *34:9 *598:B 28.8714 
5 *34:9 *602:A 19.0321 
6 *34:5 *34:33 16.4464 
7 *34:33 *34:38 24 
8 *34:38 *631:A 10.2464 
9 *34:38 *34:45 0.946429 
10 *34:45 *34:67 44.2857 
11 *34:67 *604:A2 10.2643 
12 *34:67 *34:79 1.78571 
13 *34:79 *660:D1 36.3714 
14 *34:79 *600:A1 39.3893 
15 *34:45 *653:C 11.6393 
16 *34:33 *663:C1 14.7821 
17 *34:4 *34:132 9.25 
18 *34:132 *623:A1 31.2464 
19 *34:132 *635:B 21.5143 
*END

*D_NET *35 0.00211026
*CONN
*I *639:B1 I *D sky130_fd_sc_hd__a21o_1
*I *646:A_N I *D sky130_fd_sc_hd__and2b_1
*I *654:B1 I *D sky130_fd_sc_hd__a21oi_2
*I *653:Y O *D sky130_fd_sc_hd__nand3b_1
*CAP
1 *639:B1 0.000265289
2 *646:A_N 0
3 *654:B1 0.000642115
4 *653:Y 0
5 *35:9 0.00078984
6 *35:5 0.000413014
7 *639:B1 *653:A_N 0
8 *654:B1 *51:18 0
9 *654:B1 *70:7 0
10 *654:B1 *76:8 0
11 *35:9 *663:A2 0
12 *35:9 *70:7 0
13 *683:A *654:B1 0
14 *25:45 *639:B1 0
15 *25:45 *35:9 0
*RES
1 *653:Y *35:5 13.8 
2 *35:5 *35:9 7.80357 
3 *35:9 *654:B1 32.4786 
4 *35:9 *646:A_N 9.3 
5 *35:5 *639:B1 19.4786 
*END

*D_NET *36 0.00895951
*CONN
*I *664:A I *D sky130_fd_sc_hd__or4_1
*I *644:A2 I *D sky130_fd_sc_hd__a32o_1
*I *654:Y O *D sky130_fd_sc_hd__a21oi_2
*CAP
1 *664:A 0.00188858
2 *644:A2 0
3 *654:Y 0.00167001
4 *36:26 0.00280975
5 *36:8 0.00259117
6 *664:A *641:A1 0
7 *664:A *641:A3 0
8 *664:A *657:A 0
9 *664:A *664:C 0
10 *664:A *39:10 0
11 *664:A *41:43 0
12 *664:A *41:55 0
13 *664:A *69:48 0